# generated using pymatgen
data_Sr3Ru2O7
_symmetry_space_group_name_H-M   Ccce
_cell_length_a   5.51935842
_cell_length_b   20.71406156
_cell_length_c   5.51936907
_cell_angle_alpha   90.00000000
_cell_angle_beta   90.00000000
_cell_angle_gamma   90.00000000
_symmetry_Int_Tables_number   68
_chemical_formula_structural   Sr3Ru2O7
_chemical_formula_sum   'Sr12 Ru8 O28'
_cell_volume   631.02024895
_cell_formula_units_Z   4
loop_
 _symmetry_equiv_pos_site_id
 _symmetry_equiv_pos_as_xyz
  1  'x, y, z'
  2  '-x, -y, z'
  3  'x, -y, -z'
  4  '-x, y, -z'
  5  '-x+1/2, -y, -z+1/2'
  6  'x+1/2, y, -z+1/2'
  7  '-x+1/2, y, z+1/2'
  8  'x+1/2, -y, z+1/2'
  9  'x+1/2, y+1/2, z'
  10  '-x+1/2, -y+1/2, z'
  11  'x+1/2, -y+1/2, -z'
  12  '-x+1/2, y+1/2, -z'
  13  '-x, -y+1/2, -z+1/2'
  14  'x, y+1/2, -z+1/2'
  15  '-x, y+1/2, z+1/2'
  16  'x, -y+1/2, z+1/2'
loop_
 _atom_site_type_symbol
 _atom_site_label
 _atom_site_symmetry_multiplicity
 _atom_site_fract_x
 _atom_site_fract_y
 _atom_site_fract_z
 _atom_site_occupancy
  Sr  Sr0  8  0.00000000  0.18613923  0.00000000  1
  Sr  Sr1  4  0.00000000  0.00000000  0.00000000  1
  Ru  Ru2  8  0.00000000  0.09707075  0.50000000  1
  O  O3  16  0.21308794  0.09620946  0.78702513  1
  O  O4  8  0.00000000  0.19463461  0.50000000  1
  O  O5  4  0.00000000  0.00000000  0.50000000  1
